functions/OneTimeScripts/validationAgainstOpenDSS_MATLAB/Master.dss
Clear
Set DefaultBaseFreq=60
New Circuit.ieee123


Redirect Vsource.dss
Redirect LoadShape.dss
Redirect TShape.dss
Redirect GrowthShape.dss
Redirect XYcurve.dss
Redirect TCC_Curve.dss
Redirect Spectrum.dss
Redirect Line.dss
Redirect Load.dss
Redirect Generator.dss
Redirect Storage.dss
Redirect StorageController.dss
Redirect PVSystem.dss
Redirect Monitor.dss
MakeBusList
Redirect BusVoltageBases.dss  ! set voltage bases
BusCoords BusCoords.dss
