functions/OneTimeScripts/validationAgainstOpenDSS_MATLAB/Line.dss
New "Line.l1" phases=1 bus1=1 bus2=2 r1=1E-6 x1=1E-6
New "Line.l2" phases=1 bus1=2 bus2=3 r1=0.0232 x1=0.0475
New "Line.l3" phases=1 bus1=3 bus2=4 r1=0.0441 x1=0.0447
New "Line.l4" phases=1 bus1=3 bus2=5 r1=0.0629 x1=0.0638
New "Line.l5" phases=1 bus1=3 bus2=9 r1=0.0174 x1=0.0356
New "Line.l6" phases=1 bus1=5 bus2=6 r1=0.0503 x1=0.051
New "Line.l7" phases=1 bus1=5 bus2=7 r1=0.0818 x1=0.0829
New "Line.l8" phases=1 bus1=7 bus2=8 r1=0.0629 x1=0.0638
New "Line.l9" phases=1 bus1=9 bus2=10 r1=0.0116 x1=0.0238
New "Line.l10" phases=1 bus1=10 bus2=14 r1=0.0566 x1=0.0574
New "Line.l11" phases=1 bus1=10 bus2=11 r1=0.0566 x1=0.0574
New "Line.l12" phases=1 bus1=10 bus2=15 r1=0.0174 x1=0.0356
New "Line.l13" phases=1 bus1=11 bus2=126 r1=1E-6 x1=1E-6
New "Line.l14" phases=1 bus1=126 bus2=16 r1=1E-6 x1=1E-6
New "Line.l15" phases=1 bus1=15 bus2=36 r1=0.0378 x1=0.0383
New "Line.l16" phases=1 bus1=15 bus2=20 r1=0.0478 x1=0.098
New "Line.l17" phases=1 bus1=16 bus2=13 r1=0.0629 x1=0.0638
New "Line.l18" phases=1 bus1=16 bus2=12 r1=0.0629 x1=0.0638
New "Line.l19" phases=1 bus1=17 bus2=18 r1=0.0944 x1=0.0957
New "Line.l20" phases=1 bus1=17 bus2=19 r1=0.0881 x1=0.0893
New "Line.l21" phases=1 bus1=20 bus2=21 r1=0.0629 x1=0.0638
New "Line.l22" phases=1 bus1=20 bus2=23 r1=0.0174 x1=0.0356
New "Line.l23" phases=1 bus1=21 bus2=22 r1=0.0818 x1=0.0829
New "Line.l24" phases=1 bus1=23 bus2=24 r1=0.1322 x1=0.134
New "Line.l25" phases=1 bus1=23 bus2=25 r1=0.0145 x1=0.0297
New "Line.l26" phases=1 bus1=25 bus2=26 r1=0.1385 x1=0.1404
New "Line.l27" phases=1 bus1=25 bus2=27 r1=0.0159 x1=0.0327
New "Line.l28" phases=1 bus1=27 bus2=127 r1=1E-6 x1=1E-6
New "Line.l29" phases=1 bus1=127 bus2=28 r1=0.0203 x1=0.0455
New "Line.l30" phases=1 bus1=27 bus2=30 r1=0.0116 x1=0.0238
New "Line.l31" phases=1 bus1=28 bus2=29 r1=0.0159 x1=0.0358
New "Line.l32" phases=1 bus1=28 bus2=33 r1=0.0566 x1=0.0574
New "Line.l33" phases=1 bus1=29 bus2=35 r1=0.1259 x1=0.1276
New "Line.l34" phases=1 bus1=30 bus2=31 r1=0.0174 x1=0.0356
New "Line.l35" phases=1 bus1=31 bus2=32 r1=0.0203 x1=0.0416
New "Line.l36" phases=1 bus1=32 bus2=119 r1=0.0116 x1=0.0238
New "Line.l37" phases=1 bus1=33 bus2=34 r1=0.0755 x1=0.0766
New "Line.l38" phases=1 bus1=36 bus2=17 r1=0.0252 x1=0.0255
New "Line.l39" phases=1 bus1=37 bus2=38 r1=0.0377 x1=0.0845
New "Line.l40" phases=1 bus1=37 bus2=42 r1=0.0145 x1=0.0297
New "Line.l41" phases=1 bus1=38 bus2=39 r1=0.0755 x1=0.0766
New "Line.l42" phases=1 bus1=38 bus2=40 r1=0.0629 x1=0.0638
New "Line.l43" phases=1 bus1=40 bus2=41 r1=0.0818 x1=0.0829
New "Line.l44" phases=1 bus1=42 bus2=43 r1=0.0818 x1=0.0829
New "Line.l45" phases=1 bus1=42 bus2=44 r1=0.0145 x1=0.0297
New "Line.l46" phases=1 bus1=44 bus2=45 r1=0.1259 x1=0.1276
New "Line.l47" phases=1 bus1=44 bus2=46 r1=0.0116 x1=0.0238
New "Line.l48" phases=1 bus1=46 bus2=47 r1=0.0503 x1=0.051
New "Line.l49" phases=1 bus1=46 bus2=49 r1=0.0145 x1=0.0297
New "Line.l50" phases=1 bus1=47 bus2=48 r1=0.0755 x1=0.0766
New "Line.l51" phases=1 bus1=49 bus2=50 r1=0.0087 x1=0.0178
New "Line.l52" phases=1 bus1=49 bus2=51 r1=0.0145 x1=0.0297
New "Line.l53" phases=1 bus1=51 bus2=52 r1=0.0145 x1=0.0297
New "Line.l54" phases=1 bus1=52 bus2=53 r1=0.0145 x1=0.0297
New "Line.l55" phases=1 bus1=54 bus2=55 r1=0.0116 x1=0.0238
New "Line.l56" phases=1 bus1=55 bus2=56 r1=0.0072 x1=0.0148
New "Line.l57" phases=1 bus1=56 bus2=57 r1=0.0159 x1=0.0327
New "Line.l58" phases=1 bus1=56 bus2=59 r1=0.0203 x1=0.0416
New "Line.l59" phases=1 bus1=57 bus2=58 r1=0.0159 x1=0.0327
New "Line.l60" phases=1 bus1=59 bus2=60 r1=0.0629 x1=0.0638
New "Line.l61" phases=1 bus1=59 bus2=62 r1=0.0435 x1=0.0891
New "Line.l62" phases=1 bus1=60 bus2=61 r1=0.0629 x1=0.0638
New "Line.l63" phases=1 bus1=62 bus2=63 r1=0.0319 x1=0.0653
New "Line.l64" phases=1 bus1=62 bus2=64 r1=0.048 x1=0.0229
New "Line.l65" phases=1 bus1=64 bus2=65 r1=0.0336 x1=0.016
New "Line.l66" phases=1 bus1=65 bus2=66 r1=0.0672 x1=0.032
New "Line.l67" phases=1 bus1=66 bus2=67 r1=0.0816 x1=0.0389
New "Line.l68" phases=1 bus1=67 bus2=68 r1=0.0624 x1=0.0297
New "Line.l69" phases=1 bus1=69 bus2=70 r1=0.0503 x1=0.051
New "Line.l70" phases=1 bus1=69 bus2=74 r1=0.0159 x1=0.0327
New "Line.l71" phases=1 bus1=69 bus2=99 r1=0.0145 x1=0.0297
New "Line.l72" phases=1 bus1=70 bus2=71 r1=0.0692 x1=0.0702
New "Line.l73" phases=1 bus1=71 bus2=72 r1=0.0818 x1=0.0829
New "Line.l74" phases=1 bus1=72 bus2=73 r1=0.0692 x1=0.0702
New "Line.l75" phases=1 bus1=74 bus2=75 r1=0.0692 x1=0.0702
New "Line.l76" phases=1 bus1=74 bus2=78 r1=0.0116 x1=0.0238
New "Line.l77" phases=1 bus1=75 bus2=76 r1=0.0881 x1=0.0893
New "Line.l78" phases=1 bus1=76 bus2=77 r1=0.1007 x1=0.1021
New "Line.l79" phases=1 bus1=78 bus2=79 r1=0.0232 x1=0.0475
New "Line.l80" phases=1 bus1=78 bus2=88 r1=0.0406 x1=0.0831
New "Line.l81" phases=1 bus1=79 bus2=80 r1=0.0058 x1=0.0119
New "Line.l82" phases=1 bus1=80 bus2=81 r1=0.013 x1=0.0267
New "Line.l83" phases=1 bus1=80 bus2=82 r1=0.0275 x1=0.0564
New "Line.l84" phases=1 bus1=82 bus2=83 r1=0.0101 x1=0.0208
New "Line.l85" phases=1 bus1=83 bus2=84 r1=0.0145 x1=0.0297
New "Line.l86" phases=1 bus1=83 bus2=86 r1=0.1699 x1=0.1723
New "Line.l87" phases=1 bus1=84 bus2=85 r1=0.0145 x1=0.0297
New "Line.l88" phases=1 bus1=86 bus2=87 r1=0.1196 x1=0.1212
New "Line.l89" phases=1 bus1=88 bus2=89 r1=0.0261 x1=0.0534
New "Line.l90" phases=1 bus1=89 bus2=90 r1=0.0441 x1=0.0447
New "Line.l91" phases=1 bus1=89 bus2=91 r1=0.0159 x1=0.0327
New "Line.l92" phases=1 bus1=91 bus2=92 r1=0.0566 x1=0.0574
New "Line.l93" phases=1 bus1=91 bus2=93 r1=0.013 x1=0.0267
New "Line.l94" phases=1 bus1=93 bus2=94 r1=0.0755 x1=0.0766
New "Line.l95" phases=1 bus1=93 bus2=95 r1=0.013 x1=0.0267
New "Line.l96" phases=1 bus1=95 bus2=96 r1=0.0692 x1=0.0702
New "Line.l97" phases=1 bus1=95 bus2=97 r1=0.0174 x1=0.0356
New "Line.l98" phases=1 bus1=97 bus2=98 r1=0.0503 x1=0.051
New "Line.l99" phases=1 bus1=99 bus2=100 r1=0.0159 x1=0.0327
New "Line.l100" phases=1 bus1=100 bus2=101 r1=0.0319 x1=0.0653
New "Line.l101" phases=1 bus1=101 bus2=102 r1=0.0174 x1=0.0356
New "Line.l102" phases=1 bus1=102 bus2=123 r1=0.0464 x1=0.095
New "Line.l103" phases=1 bus1=103 bus2=104 r1=0.0566 x1=0.0574
New "Line.l104" phases=1 bus1=103 bus2=107 r1=0.0159 x1=0.0327
New "Line.l105" phases=1 bus1=104 bus2=105 r1=0.0818 x1=0.0829
New "Line.l106" phases=1 bus1=105 bus2=106 r1=0.1762 x1=0.1786
New "Line.l107" phases=1 bus1=107 bus2=108 r1=0.0566 x1=0.0574
New "Line.l108" phases=1 bus1=107 bus2=110 r1=0.0188 x1=0.0386
New "Line.l109" phases=1 bus1=108 bus2=109 r1=0.1448 x1=0.1467
New "Line.l110" phases=1 bus1=110 bus2=111 r1=0.1133 x1=0.1148
New "Line.l111" phases=1 bus1=110 bus2=121 r1=0.05797 x1=0.11876
New "Line.l112" phases=1 bus1=111 bus2=112 r1=0.0755 x1=0.0766
New "Line.l113" phases=1 bus1=112 bus2=113 r1=0.1448 x1=0.1467
New "Line.l114" phases=1 bus1=112 bus2=114 r1=0.0315 x1=0.0319
New "Line.l115" phases=1 bus1=114 bus2=115 r1=0.1322 x1=0.134
New "Line.l116" phases=1 bus1=115 bus2=116 r1=0.0818 x1=0.0829
New "Line.l117" phases=1 bus1=118 bus2=37 r1=0.0217 x1=0.0445
New "Line.l118" phases=1 bus1=117 bus2=54 r1=0.0232 x1=0.0475
New "Line.l119" phases=1 bus1=53 bus2=120 r1=0.029 x1=0.0594
New "Line.l120" phases=1 bus1=125 bus2=128 r1=1E-6 x1=1E-6
New "Line.l121" phases=1 bus1=128 bus2=69 r1=0.0203 x1=0.0416
New "Line.l122" phases=1 bus1=124 bus2=103 r1=0.0145 x1=0.0297
New "Line.l123" phases=1 bus1=15 bus2=117 r1=1E-6 x1=1E-6
New "Line.l124" phases=1 bus1=20 bus2=118 r1=1E-6 x1=1E-6
New "Line.l125" phases=1 bus1=62 bus2=125 r1=1E-6 x1=1E-6
New "Line.l126" phases=1 bus1=99 bus2=124 r1=1E-6 x1=1E-6
New "Line.l127" phases=1 bus1=63 bus2=122 r1=0.0001 x1=0.0001
