functions/OneTimeScripts/validationAgainstOpenDSS_MATLAB/ieee123_EXP_POWERS.csv
Element, Terminal, P(kW), Q(kvar),  P_Normal, Q_Normal, P_Emergency, Q_Emergency
"Line.L1"               ,   1,       680.4,        63.1,         0.0,         0.0,         0.0,         0.0
"Line.L1"               ,   2,      -680.4,       -63.1
"Line.L2"               ,   1,       680.4,        63.1,         0.0,         0.0,         0.0,         0.0
"Line.L2"               ,   2,      -678.7,       -59.5
"Line.L3"               ,   1,         5.2,         2.6,         0.0,         0.0,         0.0,         0.0
"Line.L3"               ,   2,        -5.2,        -2.6
"Line.L4"               ,   1,        16.7,         0.6,         0.0,         0.0,         0.0,         0.0
"Line.L4"               ,   2,       -16.7,        -0.6
"Line.L5"               ,   1,       651.0,        57.3,         0.0,         0.0,         0.0,         0.0
"Line.L5"               ,   2,      -649.7,       -54.8
"Line.L6"               ,   1,         5.8,        -1.0,         0.0,         0.0,         0.0,         0.0
"Line.L6"               ,   2,        -5.8,         1.0
"Line.L7"               ,   1,        11.0,         1.6,         0.0,         0.0,         0.0,         0.0
"Line.L7"               ,   2,       -11.0,        -1.6
"Line.L8"               ,   1,         5.8,        -1.0,         0.0,         0.0,         0.0,         0.0
"Line.L8"               ,   2,        -5.8,         1.0
"Line.L9"               ,   1,       644.5,        52.2,         0.0,         0.0,         0.0,         0.0
"Line.L9"               ,   2,      -643.7,       -50.5
"Line.L10"              ,   1,         5.2,         2.6,         0.0,         0.0,         0.0,         0.0
"Line.L10"              ,   2,        -5.2,        -2.6
"Line.L11"              ,   1,        16.0,         0.6,         0.0,         0.0,         0.0,         0.0
"Line.L11"              ,   2,       -16.0,        -0.6
"Line.L12"              ,   1,       622.5,        47.3,         0.0,         0.0,         0.0,         0.0
"Line.L12"              ,   2,      -621.4,       -45.0
"Line.L13"              ,   1,        10.6,         1.6,         0.0,         0.0,         0.0,         0.0
"Line.L13"              ,   2,       -10.6,        -1.6
"Line.L14"              ,   1,        10.6,         1.6,         0.0,         0.0,         0.0,         0.0
"Line.L14"              ,   2,       -10.6,        -1.6
"Line.L15"              ,   1,        15.8,         0.6,         0.0,         0.0,         0.0,         0.0
"Line.L15"              ,   2,       -15.8,        -0.6
"Line.L16"              ,   1,       224.0,        86.4,         0.0,         0.0,         0.0,         0.0
"Line.L16"              ,   2,      -223.5,       -85.4
"Line.L17"              ,   1,         5.4,        -1.0,         0.0,         0.0,         0.0,         0.0
"Line.L17"              ,   2,        -5.4,         1.0
"Line.L18"              ,   1,         5.2,         2.6,         0.0,         0.0,         0.0,         0.0
"Line.L18"              ,   2,        -5.2,        -2.6
"Line.L19"              ,   1,         5.3,        -1.0,         0.0,         0.0,         0.0,         0.0
"Line.L19"              ,   2,        -5.3,         1.0
"Line.L20"              ,   1,         5.2,         2.6,         0.0,         0.0,         0.0,         0.0
"Line.L20"              ,   2,        -5.2,        -2.6
"Line.L21"              ,   1,        15.7,         4.2,         0.0,         0.0,         0.0,         0.0
"Line.L21"              ,   2,       -15.7,        -4.2
"Line.L22"              ,   1,        54.9,        14.8,         0.0,         0.0,         0.0,         0.0
"Line.L22"              ,   2,       -54.9,       -14.8
"Line.L23"              ,   1,        10.4,         5.2,         0.0,         0.0,         0.0,         0.0
"Line.L23"              ,   2,       -10.4,        -5.2
"Line.L24"              ,   1,         5.3,        -1.0,         0.0,         0.0,         0.0,         0.0
"Line.L24"              ,   2,        -5.3,         1.0
"Line.L25"              ,   1,        49.6,        15.7,         0.0,         0.0,         0.0,         0.0
"Line.L25"              ,   2,       -49.6,       -15.7
"Line.L26"              ,   1,        10.4,         5.2,         0.0,         0.0,         0.0,         0.0
"Line.L26"              ,   2,       -10.4,        -5.2
"Line.L27"              ,   1,        39.2,        10.5,         0.0,         0.0,         0.0,         0.0
"Line.L27"              ,   2,       -39.2,       -10.5
"Line.L28"              ,   1,        18.3,         7.3,         0.0,         0.0,         0.0,         0.0
"Line.L28"              ,   2,       -18.3,        -7.3
"Line.L29"              ,   1,        18.3,         7.3,         0.0,         0.0,         0.0,         0.0
"Line.L29"              ,   2,       -18.3,        -7.3
"Line.L30"              ,   1,        20.9,         3.2,         0.0,         0.0,         0.0,         0.0
"Line.L30"              ,   2,       -20.9,        -3.2
"Line.L31"              ,   1,        10.4,         5.2,         0.0,         0.0,         0.0,         0.0
"Line.L31"              ,   2,       -10.4,        -5.2
"Line.L32"              ,   1,         7.8,         2.1,         0.0,         0.0,         0.0,         0.0
"Line.L32"              ,   2,        -7.8,        -2.1
"Line.L33"              ,   1,        10.4,         5.2,         0.0,         0.0,         0.0,         0.0
"Line.L33"              ,   2,       -10.4,        -5.2
"Line.L34"              ,   1,        15.7,         4.2,         0.0,         0.0,         0.0,         0.0
"Line.L34"              ,   2,       -15.7,        -4.2
"Line.L35"              ,   1,         5.3,        -1.0,         0.0,         0.0,         0.0,         0.0
"Line.L35"              ,   2,        -5.3,         1.0
"Line.L36"              ,   1,         0.0,        -0.0,         0.0,         0.0,         0.0,         0.0
"Line.L36"              ,   2,        -0.0,        -0.0
"Line.L37"              ,   1,         2.6,        -0.5,         0.0,         0.0,         0.0,         0.0
"Line.L37"              ,   2,        -2.6,         0.5
"Line.L38"              ,   1,        10.5,         1.6,         0.0,         0.0,         0.0,         0.0
"Line.L38"              ,   2,       -10.5,        -1.6
"Line.L39"              ,   1,        13.1,         1.1,         0.0,         0.0,         0.0,         0.0
"Line.L39"              ,   2,       -13.1,        -1.1
"Line.L40"              ,   1,       129.2,        59.9,         0.0,         0.0,         0.0,         0.0
"Line.L40"              ,   2,      -129.2,       -59.8
"Line.L41"              ,   1,         5.3,        -1.0,         0.0,         0.0,         0.0,         0.0
"Line.L41"              ,   2,        -5.3,         1.0
"Line.L42"              ,   1,         7.8,         2.1,         0.0,         0.0,         0.0,         0.0
"Line.L42"              ,   2,        -7.8,        -2.1
"Line.L43"              ,   1,         2.6,        -0.5,         0.0,         0.0,         0.0,         0.0
"Line.L43"              ,   2,        -2.6,         0.5
"Line.L44"              ,   1,         5.2,         2.6,         0.0,         0.0,         0.0,         0.0
"Line.L44"              ,   2,        -5.2,        -2.6
"Line.L45"              ,   1,       124.0,        57.2,         0.0,         0.0,         0.0,         0.0
"Line.L45"              ,   2,      -123.9,       -57.1
"Line.L46"              ,   1,        10.4,         5.2,         0.0,         0.0,         0.0,         0.0
"Line.L46"              ,   2,       -10.4,        -5.2
"Line.L47"              ,   1,       110.9,        52.4,         0.0,         0.0,         0.0,         0.0
"Line.L47"              ,   2,      -110.9,       -52.4
"Line.L48"              ,   1,         7.8,         2.1,         0.0,         0.0,         0.0,         0.0
"Line.L48"              ,   2,        -7.8,        -2.1
"Line.L49"              ,   1,       103.0,        50.3,         0.0,         0.0,         0.0,         0.0
"Line.L49"              ,   2,      -103.0,       -50.2
"Line.L50"              ,   1,         5.2,         2.6,         0.0,         0.0,         0.0,         0.0
"Line.L50"              ,   2,        -5.2,        -2.6
"Line.L51"              ,   1,        54.7,        39.1,         0.0,         0.0,         0.0,         0.0
"Line.L51"              ,   2,       -54.7,       -39.1
"Line.L52"              ,   1,        33.3,         7.8,         0.0,         0.0,         0.0,         0.0
"Line.L52"              ,   2,       -33.3,        -7.8
"Line.L53"              ,   1,        13.2,         4.7,         0.0,         0.0,         0.0,         0.0
"Line.L53"              ,   2,       -13.2,        -4.7
"Line.L54"              ,   1,         2.7,        -0.5,         0.0,         0.0,         0.0,         0.0
"Line.L54"              ,   2,        -2.7,         0.5
"Line.L55"              ,   1,       370.6,       -48.3,         0.0,         0.0,         0.0,         0.0
"Line.L55"              ,   2,      -370.3,        48.9
"Line.L56"              ,   1,       365.0,       -47.9,         0.0,         0.0,         0.0,         0.0
"Line.L56"              ,   2,      -364.8,        48.2
"Line.L57"              ,   1,         7.9,         2.1,         0.0,         0.0,         0.0,         0.0
"Line.L57"              ,   2,        -7.9,        -2.1
"Line.L58"              ,   1,       357.0,       -50.3,         0.0,         0.0,         0.0,         0.0
"Line.L58"              ,   2,      -356.5,        51.2
"Line.L59"              ,   1,         2.7,        -0.5,         0.0,         0.0,         0.0,         0.0
"Line.L59"              ,   2,        -2.7,         0.5
"Line.L60"              ,   1,         7.9,         2.1,         0.0,         0.0,         0.0,         0.0
"Line.L60"              ,   2,        -7.9,        -2.1
"Line.L61"              ,   1,       348.7,       -53.3,         0.0,         0.0,         0.0,         0.0
"Line.L61"              ,   2,      -347.8,        55.2
"Line.L62"              ,   1,         2.6,        -0.5,         0.0,         0.0,         0.0,         0.0
"Line.L62"              ,   2,        -2.6,         0.5
"Line.L63"              ,   1,         0.0,        -0.0,         0.0,         0.0,         0.0,         0.0
"Line.L63"              ,   2,        -0.0,         0.0
"Line.L64"              ,   1,        72.1,        25.4,         0.0,         0.0,         0.0,         0.0
"Line.L64"              ,   2,       -72.1,       -25.4
"Line.L65"              ,   1,        66.7,        26.3,         0.0,         0.0,         0.0,         0.0
"Line.L65"              ,   2,       -66.7,       -26.3
"Line.L66"              ,   1,        56.3,        21.1,         0.0,         0.0,         0.0,         0.0
"Line.L66"              ,   2,       -56.2,       -21.1
"Line.L67"              ,   1,        46.4,        23.6,         0.0,         0.0,         0.0,         0.0
"Line.L67"              ,   2,       -46.3,       -23.6
"Line.L68"              ,   1,         9.8,        -2.5,         0.0,         0.0,         0.0,         0.0
"Line.L68"              ,   2,        -9.8,         2.5
"Line.L69"              ,   1,        21.0,        14.6,         0.0,         0.0,         0.0,         0.0
"Line.L69"              ,   2,       -21.0,       -14.6
"Line.L70"              ,   1,       165.1,      -142.4,         0.0,         0.0,         0.0,         0.0
"Line.L70"              ,   2,      -164.9,       142.7
"Line.L71"              ,   1,        84.1,        44.2,         0.0,         0.0,         0.0,         0.0
"Line.L71"              ,   2,       -84.0,       -44.1
"Line.L72"              ,   1,        15.8,        12.0,         0.0,         0.0,         0.0,         0.0
"Line.L72"              ,   2,       -15.8,       -12.0
"Line.L73"              ,   1,        10.5,         1.6,         0.0,         0.0,         0.0,         0.0
"Line.L73"              ,   2,       -10.5,        -1.6
"Line.L74"              ,   1,         5.3,        -1.0,         0.0,         0.0,         0.0,         0.0
"Line.L74"              ,   2,        -5.3,         1.0
"Line.L75"              ,   1,        26.2,        21.8,         0.0,         0.0,         0.0,         0.0
"Line.L75"              ,   2,       -26.1,       -21.8
"Line.L76"              ,   1,       138.8,      -164.5,         0.0,         0.0,         0.0,         0.0
"Line.L76"              ,   2,      -138.7,       164.7
"Line.L77"              ,   1,        15.7,        16.6,         0.0,         0.0,         0.0,         0.0
"Line.L77"              ,   2,       -15.7,       -16.6
"Line.L78"              ,   1,        10.4,         5.2,         0.0,         0.0,         0.0,         0.0
"Line.L78"              ,   2,       -10.4,        -5.2
"Line.L79"              ,   1,        50.6,      -152.3,         0.0,         0.0,         0.0,         0.0
"Line.L79"              ,   2,       -50.5,       152.5
"Line.L80"              ,   1,        52.8,       -97.2,         0.0,         0.0,         0.0,         0.0
"Line.L80"              ,   2,       -52.7,        97.4
"Line.L81"              ,   1,        40.1,      -157.7,         0.0,         0.0,         0.0,         0.0
"Line.L81"              ,   2,       -40.1,       157.7
"Line.L82"              ,   1,         5.7,        11.4,         0.0,         0.0,         0.0,         0.0
"Line.L82"              ,   2,        -5.7,       -11.4
"Line.L83"              ,   1,        34.3,      -169.1,         0.0,         0.0,         0.0,         0.0
"Line.L83"              ,   2,       -34.2,       169.4
"Line.L84"              ,   1,        23.8,      -174.6,         0.0,         0.0,         0.0,         0.0
"Line.L84"              ,   2,       -23.7,       174.7
"Line.L85"              ,   1,        10.7,      -185.6,         0.0,         0.0,         0.0,         0.0
"Line.L85"              ,   2,       -10.6,       185.8
"Line.L86"              ,   1,        13.0,        10.9,         0.0,         0.0,         0.0,         0.0
"Line.L86"              ,   2,       -13.0,       -10.9
"Line.L87"              ,   1,         5.3,      -197.2,         0.0,         0.0,         0.0,         0.0
"Line.L87"              ,   2,        -5.2,       197.4
"Line.L88"              ,   1,        10.4,         5.2,         0.0,         0.0,         0.0,         0.0
"Line.L88"              ,   2,       -10.4,        -5.2
"Line.L89"              ,   1,        49.8,      -103.1,         0.0,         0.0,         0.0,         0.0
"Line.L89"              ,   2,       -49.8,       103.2
"Line.L90"              ,   1,         5.3,       -38.6,         0.0,         0.0,         0.0,         0.0
"Line.L90"              ,   2,        -5.3,        38.6
"Line.L91"              ,   1,        34.0,       -69.8,         0.0,         0.0,         0.0,         0.0
"Line.L91"              ,   2,       -34.0,        69.9
"Line.L92"              ,   1,        10.4,       -44.8,         0.0,         0.0,         0.0,         0.0
"Line.L92"              ,   2,       -10.4,        44.8
"Line.L93"              ,   1,        23.5,       -25.1,         0.0,         0.0,         0.0,         0.0
"Line.L93"              ,   2,       -23.5,        25.1
"Line.L94"              ,   1,         5.3,       -38.6,         0.0,         0.0,         0.0,         0.0
"Line.L94"              ,   2,        -5.3,        38.6
"Line.L95"              ,   1,        18.2,        13.5,         0.0,         0.0,         0.0,         0.0
"Line.L95"              ,   2,       -18.2,       -13.5
"Line.L96"              ,   1,        10.4,         5.2,         0.0,         0.0,         0.0,         0.0
"Line.L96"              ,   2,       -10.4,        -5.2
"Line.L97"              ,   1,         7.8,         8.3,         0.0,         0.0,         0.0,         0.0
"Line.L97"              ,   2,        -7.8,        -8.3
"Line.L98"              ,   1,         5.2,         2.6,         0.0,         0.0,         0.0,         0.0
"Line.L98"              ,   2,        -5.2,        -2.6
"Line.L99"              ,   1,        21.2,        24.1,         0.0,         0.0,         0.0,         0.0
"Line.L99"              ,   2,       -21.2,       -24.1
"Line.L100"             ,   1,        15.7,        12.7,         0.0,         0.0,         0.0,         0.0
"Line.L100"             ,   2,       -15.7,       -12.7
...
"Load.S3P"              ,   1,        10.4,         5.2
"Load.S4P"              ,   1,         5.2,         2.6
"Load.S6P"              ,   1,        10.4,         5.2
"Load.S7P"              ,   1,         5.2,         2.6
"Load.S8P"              ,   1,        10.4,         5.2
"Load.S9P"              ,   1,         5.2,         2.6
"Load.S11P"             ,   1,        10.4,         5.2
"Load.S12P"             ,   1,         5.2,         2.6
"Load.S13P"             ,   1,        10.4,         5.2
"Load.S14P"             ,   1,         5.2,         2.6
"Load.S18P"             ,   1,        10.4,         5.2
"Load.S19P"             ,   1,         5.2,         2.6
"Load.S21P"             ,   1,        10.4,         5.2
"Load.S22P"             ,   1,        10.4,         5.2
"Load.S24P"             ,   1,        10.4,         5.2
"Load.S26P"             ,   1,        10.4,         5.2
"Load.S30P"             ,   1,        10.4,         5.2
"Load.S31P"             ,   1,        10.4,         5.2
"Load.S32P"             ,   1,        10.4,         5.2
"Load.S33P"             ,   1,         5.2,         2.6
"Load.S34P"             ,   1,         5.2,         2.6
"Load.S35P"             ,   1,        10.4,         5.2
"Load.S36P"             ,   1,        10.4,         5.2
"Load.S37P"             ,   1,        10.4,         5.2
"Load.S39P"             ,   1,        10.4,         5.2
"Load.S40P"             ,   1,         5.2,         2.6
"Load.S41P"             ,   1,         5.2,         2.6
"Load.S43P"             ,   1,         5.2,         2.6
"Load.S44P"             ,   1,         5.2,         2.6
"Load.S45P"             ,   1,        10.4,         5.2
"Load.S47P"             ,   1,         5.2,         2.6
"Load.S48P"             ,   1,         5.2,         2.6
"Load.S49P"             ,   1,        27.4,        19.5
"Load.S50P"             ,   1,        54.7,        39.1
"Load.S51P"             ,   1,        36.5,        24.8
"Load.S52P"             ,   1,        10.4,         5.2
"Load.S53P"             ,   1,         5.2,         2.6
"Load.S54P"             ,   1,        10.4,         5.2
"Load.S55P"             ,   1,        10.4,         5.2
"Load.S57P"             ,   1,         5.2,         2.6
"Load.S58P"             ,   1,         5.2,         2.6
"Load.S60P"             ,   1,         5.2,         2.6
"Load.S61P"             ,   1,         5.2,         2.6
"Load.S62P"             ,   1,         5.2,         2.6
"Load.S64P"             ,   1,        10.4,         5.2
"Load.S65P"             ,   1,        10.4,         5.2
"Load.S66P"             ,   1,        19.5,         9.1
"Load.S67P"             ,   1,        36.5,        26.1
"Load.S68P"             ,   1,        19.5,         9.1
"Load.S70P"             ,   1,         5.2,         2.6
"Load.S71P"             ,   1,        10.4,         5.2
"Load.S72P"             ,   1,         5.2,         2.6
"Load.S73P"             ,   1,        10.4,         5.2
"Load.S75P"             ,   1,        10.4,         5.2
"Load.S76P"             ,   1,        10.4,         5.2
"Load.S77P"             ,   1,        10.4,         5.2
"Load.S78P"             ,   1,        63.9,        46.9
"Load.S79P"             ,   1,        10.4,         5.2
"Load.S81P"             ,   1,        10.4,         5.2
"Load.S82P"             ,   1,        10.4,         5.2
"Load.S84P"             ,   1,        10.4,         5.2
"Load.S85P"             ,   1,         5.2,         2.6
"Load.S86P"             ,   1,         5.2,         2.6
"Load.S87P"             ,   1,        10.4,         5.2
"Load.S88P"             ,   1,         5.2,         2.6
"Load.S89P"             ,   1,        10.4,         5.2
"Load.S90P"             ,   1,        10.4,         5.2
"Load.S92P"             ,   1,        10.4,         5.2
"Load.S94P"             ,   1,        10.4,         5.2
"Load.S96P"             ,   1,        10.4,         5.2
"Load.S97P"             ,   1,         5.2,         2.6
"Load.S98P"             ,   1,         5.2,         2.6
"Load.S100P"            ,   1,        10.4,         5.2
"Load.S101P"            ,   1,        10.4,         5.2
"Load.S102P"            ,   1,        10.4,         5.2
"Load.S104P"            ,   1,         5.2,         2.6
"Load.S105P"            ,   1,        10.4,         5.2
"Load.S106P"            ,   1,        10.4,         5.2
"Load.S108P"            ,   1,        10.4,         5.2
"Load.S109P"            ,   1,        10.4,         5.2
"Load.S111P"            ,   1,        10.4,         5.2
"Load.S113P"            ,   1,         5.2,         2.6
"Load.S114P"            ,   1,         5.2,         2.6
"Load.S115P"            ,   1,        10.4,         5.2
"Load.S116P"            ,   1,         5.2,         2.6
"PVSystem.PV3"          ,   1,        -4.7,        -3.1
"PVSystem.PV6"          ,   1,        -4.7,        -3.1
"PVSystem.PV8"          ,   1,        -4.7,        -3.1
"PVSystem.PV11"         ,   1,        -4.7,        -3.1
"PVSystem.PV13"         ,   1,        -4.7,        -3.1
"PVSystem.PV18"         ,   1,        -4.7,        -3.1
"PVSystem.PV21"         ,   1,        -4.7,        -3.1
"PVSystem.PV24"         ,   1,        -4.7,        -3.1
"PVSystem.PV30"         ,   1,        -4.7,        -3.1
"PVSystem.PV32"         ,   1,        -4.7,        -3.1
"PVSystem.PV34"         ,   1,        -2.3,        -1.5
"PVSystem.PV36"         ,   1,        -4.7,        -3.1
"PVSystem.PV39"         ,   1,        -4.7,        -3.1
"PVSystem.PV41"         ,   1,        -2.3,        -1.5
"PVSystem.PV44"         ,   1,        -2.3,        -1.5
"PVSystem.PV47"         ,   1,        -2.3,        -1.5
"PVSystem.PV49"         ,   1,       -12.2,        -8.1
"PVSystem.PV51"         ,   1,       -16.3,       -10.8
"PVSystem.PV53"         ,   1,        -2.3,        -1.5
"PVSystem.PV55"         ,   1,        -4.7,        -3.1
"PVSystem.PV58"         ,   1,        -2.3,        -1.5
"PVSystem.PV61"         ,   1,        -2.3,        -1.5
"PVSystem.PV64"         ,   1,        -4.7,        -3.1
"PVSystem.PV66"         ,   1,        -8.7,        -5.8
"PVSystem.PV68"         ,   1,        -8.7,        -5.8
"PVSystem.PV71"         ,   1,        -4.7,         2.6
"PVSystem.PV73"         ,   1,        -4.7,        -3.1
"PVSystem.PV76"         ,   1,        -4.7,         3.1
"PVSystem.PV78"         ,   1,       -28.6,        19.0
"PVSystem.PV81"         ,   1,        -4.7,         3.1
"PVSystem.PV84"         ,   1,        -4.7,         3.1
"PVSystem.PV86"         ,   1,        -2.3,         1.5
"PVSystem.PV88"         ,   1,        -2.3,         1.5
"PVSystem.PV90"         ,   1,        -4.7,         3.1
"PVSystem.PV94"         ,   1,        -4.7,         3.1
"PVSystem.PV97"         ,   1,        -2.3,         1.5
"PVSystem.PV100"        ,   1,        -4.7,         3.1
"PVSystem.PV102"        ,   1,        -4.7,         1.2
"PVSystem.PV105"        ,   1,        -4.7,        -3.1
"PVSystem.PV108"        ,   1,        -4.7,        -1.5
"PVSystem.PV111"        ,   1,        -4.7,        -3.1
"PVSystem.PV114"        ,   1,        -2.3,        -1.5
"PVSystem.PV116"        ,   1,        -2.3,        -1.5
"Storage.BATTERY3"      ,   1,        -0.0,        -3.1
"Storage.BATTERY6"      ,   1,        -0.0,        -3.1
"Storage.BATTERY8"      ,   1,        -0.0,        -3.1
"Storage.BATTERY11"     ,   1,        -0.3,        -3.1
"Storage.BATTERY13"     ,   1,        -0.4,        -3.1
"Storage.BATTERY18"     ,   1,        -0.5,        -3.1
"Storage.BATTERY21"     ,   1,        -0.5,        -3.1
"Storage.BATTERY24"     ,   1,        -0.5,        -3.1
"Storage.BATTERY30"     ,   1,        -0.6,        -3.1
"Storage.BATTERY32"     ,   1,        -0.5,        -3.1
"Storage.BATTERY34"     ,   1,        -0.3,        -1.5
"Storage.BATTERY36"     ,   1,        -0.4,        -3.1
"Storage.BATTERY39"     ,   1,        -0.5,        -3.1
"Storage.BATTERY41"     ,   1,        -0.2,        -1.5
"Storage.BATTERY44"     ,   1,        -0.3,        -1.5
"Storage.BATTERY47"     ,   1,        -0.3,        -1.5
"Storage.BATTERY49"     ,   1,        -0.2,        -8.1
"Storage.BATTERY51"     ,   1,        -0.0,       -10.8
"Storage.BATTERY53"     ,   1,        -0.1,        -1.5
"Storage.BATTERY55"     ,   1,        -0.5,        -3.1
"Storage.BATTERY58"     ,   1,        -0.2,        -1.5
"Storage.BATTERY61"     ,   1,        -0.2,        -1.5
"Storage.BATTERY64"     ,   1,        -0.4,        -3.1
"Storage.BATTERY66"     ,   1,        -0.9,        -5.8
"Storage.BATTERY68"     ,   1,        -1.0,        -5.8
"Storage.BATTERY71"     ,   1,        -0.4,         2.6
"Storage.BATTERY73"     ,   1,        -0.5,        -3.1
"Storage.BATTERY76"     ,   1,        -0.5,         3.1
"Storage.BATTERY78"     ,   1,         0.0,        19.0
"Storage.BATTERY81"     ,   1,        -0.0,         3.1
"Storage.BATTERY84"     ,   1,        -0.4,         3.1
"Storage.BATTERY86"     ,   1,        -0.3,         1.5
"Storage.BATTERY88"     ,   1,         0.0,         1.5
"Storage.BATTERY90"     ,   1,        -0.4,         3.1
"Storage.BATTERY94"     ,   1,        -0.5,         3.1
"Storage.BATTERY97"     ,   1,        -0.3,         1.5
"Storage.BATTERY100"    ,   1,        -0.3,         3.1
"Storage.BATTERY102"    ,   1,        -0.5,         1.2
"Storage.BATTERY105"    ,   1,        -0.5,        -3.1
"Storage.BATTERY108"    ,   1,        -0.5,        -1.5
"Storage.BATTERY111"    ,   1,        -0.4,        -3.1
"Storage.BATTERY114"    ,   1,        -0.3,        -1.5
"Storage.BATTERY116"    ,   1,        -0.3,        -1.5
"Generator.85C"         ,   1,        -0.0,      -200.0
"Generator.90C"         ,   1,        -0.0,       -50.0
"Generator.92C"         ,   1,        -0.0,       -50.0
"Generator.94C"         ,   1,        -0.0,       -50.0
