functions/OneTimeScripts/validationAgainstOpenDSS_MATLAB/ieee123_VLN_Node.Txt

LINE-GROUND and LINE-LINE VOLTAGES BY BUS & NODE

Bus  Node    VLN (kV)   Angle      pu     Base kV    Node-Node   VLL (kV)  Angle      pu

1 .. 1       2.4739 /_    0.0      1.03     4.160
2 .. 1       2.4739 /_    0.0      1.03     4.160
3 .. 1       2.4568 /_   -0.2    1.0229     4.160
4 .. 1       2.4567 /_   -0.2    1.0229     4.160
5 .. 1        2.456 /_   -0.2    1.0226     4.160
9 .. 1       2.4445 /_   -0.4    1.0178     4.160
6 .. 1       2.4558 /_   -0.2    1.0225     4.160
7 .. 1       2.4554 /_   -0.2    1.0223     4.160
8 .. 1       2.4551 /_   -0.3    1.0222     4.160
10 . 1       2.4364 /_   -0.5    1.0144     4.160
14 . 1       2.4362 /_   -0.5    1.0143     4.160
11 . 1       2.4357 /_   -0.5    1.0141     4.160
15 . 1       2.4245 /_   -0.7    1.0095     4.160
126  1       2.4357 /_   -0.5    1.0141     4.160
16 . 1       2.4357 /_   -0.5    1.0141     4.160
36 . 1        2.424 /_   -0.7    1.0093     4.160
20 . 1       2.4144 /_   -0.9    1.0053     4.160
13 . 1       2.4353 /_   -0.5     1.014     4.160
12 . 1       2.4355 /_   -0.5     1.014     4.160
17 . 1       2.4238 /_   -0.7    1.0092     4.160
18 . 1       2.4234 /_   -0.7     1.009     4.160
19 . 1       2.4236 /_   -0.7    1.0091     4.160
21 . 1       2.4138 /_   -0.9     1.005     4.160
23 . 1       2.4136 /_   -0.9    1.0049     4.160
22 . 1       2.4133 /_   -0.9    1.0048     4.160
24 . 1       2.4129 /_   -0.9    1.0046     4.160
25 . 1        2.413 /_   -0.9    1.0047     4.160
26 . 1       2.4123 /_   -0.9    1.0044     4.160
27 . 1       2.4125 /_   -0.9    1.0045     4.160
127  1       2.4125 /_   -0.9    1.0045     4.160
28 . 1       2.4122 /_   -0.9    1.0043     4.160
30 . 1       2.4123 /_   -0.9    1.0044     4.160
29 . 1       2.4121 /_   -0.9    1.0043     4.160
33 . 1       2.4119 /_   -0.9    1.0042     4.160
35 . 1       2.4115 /_   -0.9     1.004     4.160
31 . 1        2.412 /_   -0.9    1.0043     4.160
32 . 1       2.4119 /_   -0.9    1.0042     4.160
119  1       2.4119 /_   -0.9    1.0042     4.160
34 . 1       2.4117 /_   -0.9    1.0041     4.160
37 . 1       2.4111 /_   -0.9    1.0039     4.160
38 . 1       2.4106 /_   -0.9    1.0037     4.160
42 . 1       2.4092 /_   -0.9    1.0031     4.160
39 . 1       2.4102 /_   -0.9    1.0035     4.160
40 . 1       2.4103 /_   -0.9    1.0035     4.160
41 . 1       2.4101 /_   -0.9    1.0034     4.160
43 . 1        2.409 /_   -0.9     1.003     4.160
44 . 1       2.4073 /_   -1.0    1.0023     4.160
45 . 1       2.4067 /_   -1.0     1.002     4.160
46 . 1        2.406 /_   -1.0    1.0017     4.160
47 . 1       2.4057 /_   -1.0    1.0016     4.160
49 . 1       2.4043 /_   -1.0    1.0011     4.160
48 . 1       2.4055 /_   -1.0    1.0016     4.160
50 . 1       2.4039 /_   -1.0    1.0009     4.160
51 . 1       2.4038 /_   -1.0    1.0008     4.160
52 . 1       2.4036 /_   -1.0    1.0008     4.160
53 . 1       2.4036 /_   -1.0    1.0007     4.160
54 . 1        2.414 /_   -0.8    1.0051     4.160
55 . 1       2.4088 /_   -0.9    1.0029     4.160
56 . 1       2.4057 /_   -0.9    1.0016     4.160
57 . 1       2.4056 /_   -0.9    1.0016     4.160
59 . 1       2.3969 /_   -1.0   0.99797     4.160
58 . 1       2.4055 /_   -0.9    1.0016     4.160
60 . 1       2.3966 /_   -1.0   0.99783     4.160
62 . 1       2.3784 /_   -1.2   0.99027     4.160
61 . 1       2.3964 /_   -1.0   0.99777     4.160
63 . 1       2.3784 /_   -1.2   0.99027     4.160
64 . 1       2.3764 /_   -1.2   0.98943     4.160
65 . 1       2.3751 /_   -1.2    0.9889     4.160
66 . 1       2.3729 /_   -1.2   0.98797     4.160
67 . 1       2.3708 /_   -1.2   0.98711     4.160
68 . 1       2.3703 /_   -1.2    0.9869     4.160
69 . 1       2.3713 /_   -1.3    0.9873     4.160
70 . 1       2.3705 /_   -1.3   0.98698     4.160
74 . 1       2.3672 /_   -1.4   0.98561     4.160
99 . 1       2.3702 /_   -1.3   0.98684     4.160
71 . 1       2.3696 /_   -1.3    0.9866     4.160
72 . 1        2.369 /_   -1.3   0.98634     4.160
73 . 1       2.3686 /_   -1.4   0.98619     4.160
75 . 1       2.3661 /_   -1.4   0.98516     4.160
78 . 1       2.3645 /_   -1.4   0.98448     4.160
76 . 1       2.3652 /_   -1.4   0.98478     4.160
77 . 1       2.3647 /_   -1.4   0.98456     4.160
79 . 1       2.3628 /_   -1.4   0.98378     4.160
88 . 1       2.3613 /_   -1.4   0.98315     4.160
80 . 1       2.3625 /_   -1.4   0.98363     4.160
81 . 1       2.3623 /_   -1.4   0.98356     4.160
82 . 1       2.3611 /_   -1.4   0.98307     4.160
83 . 1       2.3608 /_   -1.4   0.98292     4.160
84 . 1       2.3605 /_   -1.4   0.98281     4.160
86 . 1       2.3587 /_   -1.4   0.98208     4.160
85 . 1       2.3604 /_   -1.4   0.98277     4.160
87 . 1       2.3578 /_   -1.4   0.98169     4.160
89 . 1       2.3594 /_   -1.4   0.98235     4.160
90 . 1        2.359 /_   -1.4   0.98221     4.160
91 . 1       2.3586 /_   -1.4   0.98203     4.160
92 . 1       2.3582 /_   -1.4   0.98185     4.160
93 . 1       2.3581 /_   -1.4   0.98183     4.160
94 . 1       2.3576 /_   -1.4   0.98159     4.160
95 . 1       2.3578 /_   -1.4    0.9817     4.160
96 . 1       2.3573 /_   -1.4   0.98148     4.160
97 . 1       2.3576 /_   -1.4   0.98161     4.160
98 . 1       2.3574 /_   -1.4   0.98153     4.160
100  1       2.3698 /_   -1.4   0.98671     4.160
101  1       2.3694 /_   -1.4   0.98653     4.160
102  1       2.3693 /_   -1.4   0.98648     4.160
123  1       2.3693 /_   -1.4   0.98648     4.160
103  1       2.3694 /_   -1.4    0.9865     4.160
104  1       2.3686 /_   -1.4   0.98619     4.160
107  1       2.3687 /_   -1.4   0.98624     4.160
105  1       2.3678 /_   -1.4   0.98584     4.160
106  1       2.3669 /_   -1.4   0.98546     4.160
108  1       2.3681 /_   -1.4   0.98599     4.160
110  1       2.3682 /_   -1.4   0.98604     4.160
109  1       2.3674 /_   -1.4   0.98568     4.160
111  1        2.366 /_   -1.4    0.9851     4.160
121  1       2.3682 /_   -1.4   0.98604     4.160
112  1       2.3649 /_   -1.4   0.98464     4.160
113  1       2.3645 /_   -1.4   0.98448     4.160
114  1       2.3645 /_   -1.4   0.98448     4.160
115  1       2.3633 /_   -1.4   0.98396     4.160
116  1       2.3629 /_   -1.4   0.98382     4.160
118  1       2.4144 /_   -0.9    1.0053     4.160
117  1       2.4245 /_   -0.7    1.0095     4.160
120  1       2.4036 /_   -1.0    1.0007     4.160
125  1       2.3784 /_   -1.2   0.99027     4.160
128  1       2.3784 /_   -1.2   0.99027     4.160
124  1       2.3702 /_   -1.3   0.98684     4.160
122  1       2.3784 /_   -1.2   0.99027     4.160
